DE,Autogenerated by Teletext-Twitter
PS,8000
CT,15,T
PN,15301
SC,0001
OL,28,@@@|gpCu_@|wKpZA`UB_wLs_w}ww]_oh_wM@@
OL,1,G]MDTELETEXT TWITTER 01/08        V)l'
OL,3,V#######################################
OL,4,``````F@HorsenburgerG|F16-Jul-2019 16:44
OL,5,GIt's another new thing for you!
OL,6,G_FantasticFour _teletext _TheThing
OL,7,G<LINK>
OL,8,````````````F@M0RD3NG|F16-Jul-2019 16:49
OL,9,G_Teletext after dark, red series
OL,10,Gnumber four. Added to the Chunky
OL,11,Ggallery, of course! <LINK>
OL,12,```````F@retrotextukG|F16-Jul-2019 09:29
OL,13,GEverton fans! Let us know your
OL,14,Gfavourite game from the glorious
OL,15,GHoward Kendall era & we'll recreate it
OL,16,Gfor you in the iconic _teletext format
OL,17,Gpopular in the 1980s _EFC _EvertonFC
OL,18,G<LINK>
OL,19,``````````F@f`stre17G|F16-Jul-2019 08:12
OL,20,GMit Altbier fangt man _Rose - Guter
OL,21,GGeschmack, guter Trainer! _Eberl
OL,22,G_Borussia _Monchengladbach _RTL
OL,23,G_Teletext _BuLi @borussia <LINK>
FL,0,0,0,0,0,100
OL,26,@{D@Mpo|D@Nxp~D@Mxw
PN,15302
SC,0002
OL,28,@@@|gpCu_@|wKpZA`UB_wLs_w}ww]_oh_wM@@
OL,1,G]MDTELETEXT TWITTER 02/08        V)l'
OL,3,V#######################################
OL,4,`````````F@TCA`MediaG|F16-Jul-2019 06:48
OL,5,GUPDATE:  Despite being physically and
OL,6,Gracially ATTACKED by STAFF in
OL,7,G_TELEMACHOS Corfu and contacting
OL,8,Gtravel agent _TELETEXT to relocate us
OL,9,Gthey refused unless I paid #1300
OL,10,Gneedless to say, I said "no" and
OL,11,Grelocated my family independently and
OL,12,Gwill look to take action once home.
OL,13,``````F@HorsenburgerG|F15-Jul-2019 20:08
OL,14,GAnd here is a some _teletextart that
OL,15,Gcould do with ORANGE!!!  _TheThing
OL,16,G_FantasticFour _Teletext <LINK>
OL,17,``````F@HorsenburgerG|F15-Jul-2019 19:35
OL,18,GCan you guess who this is supposed to
OL,19,Gbe?  _Teletext _pixelart <LINK>
FL,0,0,0,0,0,100
OL,26,@lD@Npo
PN,15303
SC,0003
OL,28,@@@|gpCu_@|wKpZA`UB_wLs_w}ww]_oh_wM@@
OL,1,G]MDTELETEXT TWITTER 03/08        V)l'
OL,3,V#######################################
OL,4,```````F@retrotextukG|F15-Jul-2019 18:41
OL,5,GFor those too young to remember, this
OL,6,Gis how teletext started, with the
OL,7,GBBC's Ceefax service in the 1970s. The
OL,8,Gupdating process did eventually get
OL,9,Gmore sophisticated with news, football
OL,10,Gscores and other information mostly
OL,11,Gautomated. _teletext <LINK>
OL,12,```````F@Deepstweet1G|F15-Jul-2019 15:25
OL,13,GTake me back to those days   _teletext
OL,14,G_bamboozle _mondaymemories <LINK>
OL,15,```````F@retrotextukG|F15-Jul-2019 13:21
OL,16,GThe A-Z journey through our database
OL,17,Gbrings us to Arsenal & probably the
OL,18,Gbest five days in the club's history.
OL,19,GA great present for any Gunners fan -
OL,20,Gor Spurs supporter!  <LINK>  _COYG
OL,21,G_alwaysarsenal _arsenal _afc _teletext
OL,22,G<LINK>
FL,0,0,0,0,0,100
OL,26,@uD@\M@
PN,15304
SC,0004
OL,28,@@@|gpCu_@|wKpZA`UB_wLs_w}ww]_oh_wM@@
OL,1,G]MDTELETEXT TWITTER 04/08        V)l'
OL,3,V#######################################
OL,4,```````F@illarterateG|F15-Jul-2019 09:54
OL,5,GThis is cool. I dunno who made it,
OL,6,Gthough. <LINK>  _teletext _pixelart
OL,7,G_Digitiser  @Octav1usKitten @ZXGuesser
OL,8,G<LINK>
OL,9,````````````F@M0RD3NG|F14-Jul-2019 18:40
OL,10,GOkay, it's not that late, but whether
OL,11,Gyou like it or not, _Teletext after
OL,12,Gdark is already here. Third in the red
OL,13,Gseries, this time with some extra
OL,14,Gspice, making it kind of _NSFW.
OL,15,GAlthough looking at a pixelated breast
OL,16,Gwould sooner get you laughed at than
OL,17,Gin actual trouble. <LINK>
OL,18,`````````````F@p302`G|F14-Jul-2019 10:23
OL,19,GSeen the range at <LINK> yet?   Over
OL,20,G250 ready to order, and a request form
OL,21,Gfor any other result!  _ceefax
OL,22,G_ceefaxmug _teletext _teletextmug
OL,23,G_football _retrofootball <LINK>
FL,0,0,0,0,0,100
OL,26,@zD@Spo
PN,15305
SC,0005
OL,28,@@@|gpCu_@|wKpZA`UB_wLs_w}ww]_oh_wM@@
OL,1,G]MDTELETEXT TWITTER 05/08        V)l'
OL,3,V#######################################
OL,4,````````````F@M0RD3NG|F13-Jul-2019 22:25
OL,5,G_Teletext after dark, continued. A
OL,6,Gsecond one in the red series - a part
OL,7,Gof the Chunky Fringe extravaganza!
OL,8,G<LINK>
OL,9,```F@LittleBoxOfLyr1G|F13-Jul-2019 18:05
OL,10,GANY TEAM - ANY GAME  DM details of
OL,11,Gyour favourite result and get it
OL,12,Gcommemorated on 50+ products including
OL,13,Gmugs, T-shirt's & phone cases <LINK>
OL,14,G_EPL _EFL _SPFL _FootballTogether
OL,15,G_football _FootballMemorabilia _CEEFAX
OL,16,G_TELETEXT <LINK>
FL,0,0,0,0,0,100
OL,26,@uD@No\
PN,15306
SC,0006
OL,28,@@@|gpCu_@|wKpZA`UB_wLs_w}ww]_oh_wM@@
OL,1,G]MDTELETEXT TWITTER 06/08        V)l'
OL,3,V#######################################
OL,4,```F@CrossStreetArtsG|F13-Jul-2019 07:15
OL,5,GYes we are! Teletext work by
OL,6,G@illarterate in our _TwentyYears
OL,7,Gexhibition. Opens today 12-9pm 
OL,8,G_manifest19 _manifestarts19 _gallery
OL,9,G_wiganart _wigan _teletext _artist
OL,10,G_artinwiganborough _artgallery
OL,11,G_teletext _openstudios <LINK> <LINK>
OL,12,`````````F@TCA`MediaG|F13-Jul-2019 07:03
OL,13,GReportedly, the family have relocated
OL,14,G(by their own effort) and will be
OL,15,Glaunching a complaint against
OL,16,G_teletext for leaving their children
OL,17,Gin a unsafe/hostile environment
OL,18,Gdespite numerous calls.   Alongside,
OL,19,Gpressing charges against the
OL,20,G_telemachos for assault & racism
OL,21,G_corfu2019
FL,0,0,0,0,0,100
OL,26,@tD@Npo
PN,15307
SC,0007
OL,28,@@@|gpCu_@|wKpZA`UB_wLs_w}ww]_oh_wM@@
OL,1,G]MDTELETEXT TWITTER 07/08        V)l'
OL,3,V#######################################
OL,4,`````````F@TCA`MediaG|F13-Jul-2019 06:04
OL,5,GAllegedly, when the father who spoke
OL,6,Gto his travel agent _Teletext about
OL,7,Gthe physical assault and racial abuse,
OL,8,Gat the hotel by staff & the need to
OL,9,Grelocate his family the
OL,10,G_teletextadvisorfrank said he was
OL,11,Gthirsty to drink some coffee and put
OL,12,Gthe call on hold to drink. _corfu2019
OL,13,`````````F@TCA`MediaG|F13-Jul-2019 06:16
OL,14,G_TelemachosHotel management  _Yana
OL,15,Greportedly, asked staff to put up
OL,16,Gposters on most walls (of the man his
OL,17,Gstaff had physically and racially
OL,18,Gassaulted). Including: the guest full
OL,19,Gname _teletext booking reference and
OL,20,Gother sensitive information for all
OL,21,Gguests to see. _corfu2019
FL,0,0,0,0,0,100
OL,26,@lD@NpouD@Npo
PN,15308
SC,0008
OL,28,@@@|gpCu_@|wKpZA`UB_wLs_w}ww]_oh_wM@@
OL,1,G]MDTELETEXT TWITTER 08/08        V)l'
OL,3,V#######################################
OL,4,````````````F@M0RD3NG|F12-Jul-2019 21:14
OL,5,GHere's a Chunky Fringe special. I just
OL,6,Gmight add it to the editable sites if
OL,7,Git's too late for a gallery upload.
OL,8,G_teletext <LINK>
OL,9,```````F@illarterateG|F12-Jul-2019 12:37
OL,10,GThe _Digitiser Chunky Fringe _teletext
OL,11,Gservice, hosted by @ZXGuesser, is now
OL,12,GLIVE and ready to edit. I particularly
OL,13,Genjoy Mr T's comments on the 'about'
OL,14,Gpage and @NikkiAndBunty's portrait of
OL,15,G@mrbiffo. :-)  View: <LINK>  Edit:
OL,16,G<LINK> <LINK>
OL,17,`````F@andyuglifruitG|F12-Jul-2019 11:30
OL,18,GSome _Teletext _Pixelart showing how
OL,19,GTeletext is a _3bit colour system.
OL,20,G<LINK> <LINK>
FL,0,0,0,0,0,100
